psat/tests/d_009ieee.m
% File generated by PSAT from IEEE/CDF data file.
% ------------------------------------------------------------------------------
% Author:   Federico Milano
% E-mail:   fmilano@thunderbox.uwaterloo.ca
% Web-site: http://thunderbox.uwaterloo.ca/~fmilano
% ------------------------------------------------------------------------------
%  00/00/01                      100.0  0    0 0                                                                                                                                                                                                                                                             

Bus.con = [ ...
   1  100.00  1.04000  0.00000  1  1;
   2  100.00  1.02500  0.16197  1  1;
   3  100.00  1.02500  0.08141  1  1;
   4  100.00  1.02500 -0.03868  1  1;
   5  100.00  0.99500 -0.06960  1  1;
   6  100.00  1.01200 -0.06435  1  1;
   7  100.00  1.02500  0.06492  1  1;
   8  100.00  1.01500  0.01270  1  1;
   9  100.00  1.03200  0.03433  1  1;
  ];

SW.con = [ ...
   1 100.0 100.00  1.04000  0.00000 9999.00000 -999.90000 1.1 0.9  0.71641 1 1 1;
  ];

PV.con = [ ...
   2 100.0 100.00  1.63000  1.02500 9999.00000 -999.90000 1.1 0.9 1  1;
   3 100.0 100.00  0.85000  1.02500 9999.00000 -999.90000 1.1 0.9 1  1;
  ];

PQ.con = [ ...
   5 100.0 100.00  1.25000  0.50000 1.1 0.9 1  1;
   6 100.0 100.00  0.90000  0.30000 1.1 0.9 1  1;
   8 100.0 100.00  1.00000  0.35000 1.1 0.9 1  1;
  ];

Line.con = [ ...
   4    1  100.00 100.00 60 0   0.0000  0.00000  0.05760  0.00000  1.00000  0.00000 0    0.000    0.000  1;
   7    2  100.00 100.00 60 0   0.0000  0.00000  0.06250  0.00000  1.00000  0.00000 0    0.000    0.000  1;
   9    3  100.00 100.00 60 0   0.0000  0.00000  0.05860  0.00000  1.00000  0.00000 0    0.000    0.000  1;
   7    8  100.00 100.00 60 0   0.0000  0.00850  0.07200  0.14900  0.00000  0.00000 0    0.000    0.000  1;
   9    8  100.00 100.00 60 0   0.0000  0.01190  0.10080  0.20900  0.00000  0.00000 0    0.000    0.000  1;
   7    5  100.00 100.00 60 0   0.0000  0.03200  0.16100  0.30600  0.00000  0.00000 0    0.000    0.000  1;
   9    6  100.00 100.00 60 0   0.0000  0.03900  0.17000  0.35800  0.00000  0.00000 0    0.000    0.000  1;
   5    4  100.00 100.00 60 0   0.0000  0.01000  0.08500  0.17600  0.00000  0.00000 0    0.000    0.000  1;
   6    4  100.00 100.00 60 0   0.0000  0.01700  0.09200  0.15800  0.00000  0.00000 0    0.000    0.000  1;
  ];

Bus.names = { ...
  'BUS-1   100'; 'BUS-2   100'; 'BUS-3   100'; 'BUS-4   100'; 'BUS-5   100';
  'BUS-6   100'; 'BUS-7   100'; 'BUS-8   100'; 'BUS-9   100'};

